
 OpenBabel11172321293D

  6  5  0  0  0  0  0  0  0  0999 V2000
   -4.4428    2.5355    0.0578 N   0  0  0  0  0  0  0  0  0  0  0  0
   -3.0089    2.6202   -0.0578 N   0  0  0  0  0  0  0  0  0  0  0  0
   -4.8188    1.8098   -0.5626 H   0  0  0  0  0  0  0  0  0  0  0  0
   -4.8888    3.4014   -0.2649 H   0  0  0  0  0  0  0  0  0  0  0  0
   -2.5629    1.7543    0.2649 H   0  0  0  0  0  0  0  0  0  0  0  0
   -2.6329    3.3459    0.5626 H   0  0  0  0  0  0  0  0  0  0  0  0
  1  2  1  0  0  0  0
  1  3  1  0  0  0  0
  1  4  1  0  0  0  0
  2  5  1  0  0  0  0
  2  6  1  0  0  0  0
M  END
