
 OpenBabel11152316133D

  4  3  0  0  0  0  0  0  0  0999 V2000
   -5.4890    1.5423   -0.0112 N   0  0  0  0  0  0  0  0  0  0  0  0
   -4.4717    1.5981    0.0059 H   0  0  0  0  0  0  0  0  0  0  0  0
   -5.8006    2.2850   -0.6353 H   0  0  0  0  0  0  0  0  0  0  0  0
   -5.8006    1.8099    0.9214 H   0  0  0  0  0  0  0  0  0  0  0  0
  1  2  1  0  0  0  0
  1  3  1  0  0  0  0
  1  4  1  0  0  0  0
M  END
