
 OpenBabel01202416263D

  5  4  0  0  0  0  0  0  0  0999 V2000
   -3.7553    2.0715   -0.0358 S   0  5  0  0  0  0  0  0  0  0  0  0
   -5.1563    3.2426    0.0056 C   0  0  0  0  0  0  0  0  0  0  0  0
   -6.1301    2.7393    0.0028 H   0  0  0  0  0  0  0  0  0  0  0  0
   -5.1659    3.9232   -0.8536 H   0  0  0  0  0  0  0  0  0  0  0  0
   -5.1492    3.8812    0.8964 H   0  0  0  0  0  0  0  0  0  0  0  0
  1  2  1  0  0  0  0
  2  3  1  0  0  0  0
  2  4  1  0  0  0  0
  2  5  1  0  0  0  0
M  CHG  1   1  -1
M  END
