
 OpenBabel11152316123D

  5  4  0  0  0  0  0  0  0  0999 V2000
   -3.9146    0.8329    0.0000 C   0  0  0  0  0  0  0  0  0  0  0  0
   -2.8224    0.8329   -0.0000 H   0  0  0  0  0  0  0  0  0  0  0  0
   -4.2787    1.1244    0.9876 H   0  0  0  0  0  0  0  0  0  0  0  0
   -4.2787   -0.1681   -0.2415 H   0  0  0  0  0  0  0  0  0  0  0  0
   -4.2787    1.5426   -0.7462 H   0  0  0  0  0  0  0  0  0  0  0  0
  1  2  1  0  0  0  0
  1  3  1  0  0  0  0
  1  4  1  0  0  0  0
  1  5  1  0  0  0  0
M  END
