
 OpenBabel01272512463D

  8  0  0  0  0  0  0  0  0  0999 V2000
   -3.9738    3.4951   -0.0000 C   0  0  0  0  0 15  0  0  0  0  0  0
   -4.4066    5.7215   -0.0000 O   0  0  0  0  0 15  0  0  0  0  0  0
   -5.8226    1.7472   -0.0000 O   0  0  0  0  0 15  0  0  0  0  0  0
   -7.4032    2.6661   -0.0000 H   0  0  0  0  0 15  0  0  0  0  0  0
   -1.4116    2.3027   -0.0000 C   0  0  0  0  0 15  0  0  0  0  0  0
    0.0296    3.7654   -0.0000 H   0  0  0  0  0 15  0  0  0  0  0  0
   -1.2024    1.0978   -1.6614 H   0  0  0  0  0 15  0  0  0  0  0  0
   -1.2024    1.0978    1.6614 H   0  0  0  0  0 15  0  0  0  0  0  0
M  END
