
 OpenBabel01272512353D

  4  0  0  0  0  0  0  0  0  0999 V2000
  -10.3640    2.9381   -0.0139 N   0  0  0  0  0 15  0  0  0  0  0  0
   -8.4521    3.0117    0.0086 H   0  0  0  0  0 15  0  0  0  0  0  0
  -10.9650    4.3106   -1.2038 H   0  0  0  0  0 15  0  0  0  0  0  0
  -10.9650    3.4122    1.7397 H   0  0  0  0  0 15  0  0  0  0  0  0
M  END
