
 OpenBabel11162314213D

  4  3  0  0  0  0  0  0  0  0999 V2000
   -7.1080    0.7397    0.0000 C   0  0  0  0  0  0  0  0  0  0  0  0
   -5.9118    0.8392    0.0000 C   0  0  0  0  0  0  0  0  0  0  0  0
   -8.1701    0.6514   -0.0000 H   0  0  0  0  0  0  0  0  0  0  0  0
   -4.8496    0.9275    0.0000 H   0  0  0  0  0  0  0  0  0  0  0  0
  1  2  3  0  0  0  0
  1  3  1  0  0  0  0
  2  4  1  0  0  0  0
M  END
