
 OpenBabel01202413513D

  4  3  0  0  0  0  0  0  0  0999 V2000
   -3.9052   -0.3593   -0.0000 C   0  0  0  0  0  0  0  0  0  0  0  0
   -3.5650    0.8138   -0.0000 O   0  0  0  0  0  0  0  0  0  0  0  0
   -3.1332   -1.3250    0.0000 O   0  5  0  0  0  0  0  0  0  0  0  0
   -5.0741   -0.7622    0.0000 O   0  5  0  0  0  0  0  0  0  0  0  0
  1  2  2  0  0  0  0
  1  3  1  0  0  0  0
  1  4  1  0  0  0  0
M  CHG  2   3  -1   4  -1
M  END
