
 OpenBabel01202414033D

  5  4  0  0  0  0  0  0  0  0999 V2000
   -2.2429    1.3483   -0.2600 P   0  0  0  0  0  0  0  0  0  0  0  0
   -2.1653    2.7918    0.2638 O   0  0  0  0  0  0  0  0  0  0  0  0
   -0.8527    0.6971   -0.1760 O   0  5  0  0  0  0  0  0  0  0  0  0
   -3.2373    0.5457    0.5949 O   0  5  0  0  0  0  0  0  0  0  0  0
   -2.7165    1.3587   -1.7228 O   0  5  0  0  0  0  0  0  0  0  0  0
  1  2  2  0  0  0  0
  1  3  1  0  0  0  0
  1  4  1  0  0  0  0
  1  5  1  0  0  0  0
M  CHG  3   3  -1   4  -1   5  -1
M  END
